
OS:Version,
  {2f1d759c-a79e-49e2-a02a-637427bd1144}, !- Handle
  2.7.1;                                  !- Version Identifier

OS:Site,
  {12c2abec-3cad-4298-b4b4-430bc75d6bbf}, !- Handle
  Miami Intl Ap_FL_USA,                   !- Name
  25.82,                                  !- Latitude {deg}
  -80.3,                                  !- Longitude {deg}
  -5,                                     !- Time Zone {hr}
  11,                                     !- Elevation {m}
  City;                                   !- Terrain

OS:SimulationControl,
  {e032c526-1447-4e09-8941-ffa0459b9391}, !- Handle
  Yes,                                    !- Do Zone Sizing Calculation
  Yes,                                    !- Do System Sizing Calculation
  Yes,                                    !- Do Plant Sizing Calculation
  No,                                     !- Run Simulation for Sizing Periods
  Yes,                                    !- Run Simulation for Weather File Run Periods
  0.04,                                   !- Loads Convergence Tolerance Value
  0.2,                                    !- Temperature Convergence Tolerance Value {deltaC}
  FullInteriorAndExterior,                !- Solar Distribution
  25,                                     !- Maximum Number of Warmup Days
  6;                                      !- Minimum Number of Warmup Days

OS:Surface,
  {f232418f-01eb-42e1-848b-79dc58747cb8}, !- Handle
  Room_4_Mult19_Flr_3_Wall_North,         !- Name
  Wall,                                   !- Surface Type
  ,                                       !- Construction Name
  {9ed39cce-0061-4e25-a59b-4d3c6fe4c78f}, !- Space Name
  Outdoors,                               !- Outside Boundary Condition
  ,                                       !- Outside Boundary Condition Object
  SunExposed,                             !- Sun Exposure
  WindExposed,                            !- Wind Exposure
  ,                                       !- View Factor to Ground
  ,                                       !- Number of Vertices
  14.021, 22.86, 10.056,                  !- X,Y,Z Vertex 1 {m}
  14.021, 22.86, 7.008,                   !- X,Y,Z Vertex 2 {m}
  10.363, 22.86, 7.008,                   !- X,Y,Z Vertex 3 {m}
  10.363, 22.86, 10.056;                  !- X,Y,Z Vertex 4 {m}

OS:Connection,
  {bc8969aa-4683-48b9-a1ea-7545d4ae538b}, !- Handle
  {00ea9e6f-f56f-44c4-b684-1127bee7c41c}, !- Name
  ,                                       !- Source Object
  11,                                     !- Outlet Port
  ,                                       !- Target Object
  2;                                      !- Inlet Port

OS:Space,
  {9ed39cce-0061-4e25-a59b-4d3c6fe4c78f}, !- Handle
  Room_4_Mult19_Flr_3,                    !- Name
  {a549a7b6-6a3c-461a-9a86-d668b96e86e6}, !- Space Type Name
  ,                                       !- Default Construction Set Name
  ,                                       !- Default Schedule Set Name
  0,                                      !- Direction of Relative North {deg}
  0,                                      !- X Origin {m}
  0,                                      !- Y Origin {m}
  0,                                      !- Z Origin {m}
  {4f20f531-d5ff-45bc-b4e0-45e468d1aabe}, !- Building Story Name
  {735f1947-6187-43ef-9a82-b2cfc9f67423}, !- Thermal Zone Name
  Yes;                                    !- Part of Total Floor Area

OS:Connection,
  {ed133cc7-7e13-4061-b64c-eed3db836da6}, !- Handle
  {61a53aec-d14c-4724-88c0-39d961e5fa87}, !- Name
  ,                                       !- Source Object
  11,                                     !- Outlet Port
  ,                                       !- Target Object
  2;                                      !- Inlet Port

OS:Space,
  {1dca28a2-4d33-4a34-beaa-caab194b9a4e}, !- Handle
  Room_6_Flr_3,                           !- Name
  {36ca408f-fd41-451e-a7e0-ebe01ff3a1b5}, !- Space Type Name
  ,                                       !- Default Construction Set Name
  ,                                       !- Default Schedule Set Name
  0,                                      !- Direction of Relative North {deg}
  0,                                      !- X Origin {m}
  0,                                      !- Y Origin {m}
  0,                                      !- Z Origin {m}
  {4f20f531-d5ff-45bc-b4e0-45e468d1aabe}, !- Building Story Name
  {a6b92c0f-efdd-4e6d-804c-7fa866fdf0c5}, !- Thermal Zone Name
  Yes;                                    !- Part of Total Floor Area

OS:Surface,
  {00d4c0a4-1fc4-4c5e-aa2f-2004e5912d12}, !- Handle
  Retail_1_Flr_1_Ceiling,                 !- Name
  RoofCeiling,                            !- Surface Type
  ,                                       !- Construction Name
  {d4a4e42f-8d93-49ac-ad87-6d44ac2e6c0e}, !- Space Name
  Outdoors,                               !- Outside Boundary Condition
  ,                                       !- Outside Boundary Condition Object
  SunExposed,                             !- Sun Exposure
  WindExposed,                            !- Wind Exposure
  ,                                       !- View Factor to Ground
  ,                                       !- Number of Vertices
  11.582, 0, 3.9624,                      !- X,Y,Z Vertex 1 {m}
  11.582, 5.791, 3.9624,                  !- X,Y,Z Vertex 2 {m}
  0, 5.791, 3.9624,                       !- X,Y,Z Vertex 3 {m}
  0, 0, 3.9624;                           !- X,Y,Z Vertex 4 {m}

OS:Connection,
  {131cc259-557d-4ee7-9824-931c4b9cbd3e}, !- Handle
  {a5602e91-63a8-4b8e-bd52-a71ded1eee51}, !- Name
  ,                                       !- Source Object
  11,                                     !- Outlet Port
  ,                                       !- Target Object
  2;                                      !- Inlet Port

OS:Space,
  {d4a4e42f-8d93-49ac-ad87-6d44ac2e6c0e}, !- Handle
  Retail_1_Flr_1,                         !- Name
  {e532335e-19d2-4332-93c6-c5dc75d1e6e3}, !- Space Type Name
  ,                                       !- Default Construction Set Name
  ,                                       !- Default Schedule Set Name
  0,                                      !- Direction of Relative North {deg}
  0,                                      !- X Origin {m}
  0,                                      !- Y Origin {m}
  0,                                      !- Z Origin {m}
  {f0e9cfce-af22-4fe8-9588-665f4657efe7}, !- Building Story Name
  {37796997-4446-4e55-ac30-c1db7ac2f7a7}, !- Thermal Zone Name
  Yes;                                    !- Part of Total Floor Area

OS:Connection,
  {cae85aa5-a97a-4de4-aaaa-1f8e7a8b4d38}, !- Handle
  {e30e2401-f8e8-4b5a-9131-dbcb2a7e9ace}, !- Name
  ,                                       !- Source Object
  11,                                     !- Outlet Port
  ,                                       !- Target Object
  2;                                      !- Inlet Port

OS:Space,
  {faef36fd-3157-4f01-bd01-dd0647fc5b3e}, !- Handle
  Room_3_Mult19_Flr_3,                    !- Name
  {a549a7b6-6a3c-461a-9a86-d668b96e86e6}, !- Space Type Name
  ,                                       !- Default Construction Set Name
  ,                                       !- Default Schedule Set Name
  0,                                      !- Direction of Relative North {deg}
  0,                                      !- X Origin {m}
  0,                                      !- Y Origin {m}
  0,                                      !- Z Origin {m}
  {4f20f531-d5ff-45bc-b4e0-45e468d1aabe}, !- Building Story Name
  {ba09d4cb-18ab-4b03-b5e1-3ed5eaf02634}, !- Thermal Zone Name
  Yes;                                    !- Part of Total Floor Area

OS:Surface,
  {e75da7ff-176c-4860-8346-527e1ad7c21b}, !- Handle
  Lobby_Flr_1_Floor_2,                    !- Name
  Floor,                                  !- Surface Type
  ,                                       !- Construction Name
  {9729522f-3e67-44fd-ba42-f2dfa1d6fd54}, !- Space Name
  Surface,                                !- Outside Boundary Condition
  {1552e9e5-1321-4853-9656-f3f82eaf576f}, !- Outside Boundary Condition Object
  NoSun,                                  !- Sun Exposure
  NoWind,                                 !- Wind Exposure
  ,                                       !- View Factor to Ground
  ,                                       !- Number of Vertices
  81.991, 22.86, 0,                       !- X,Y,Z Vertex 1 {m}
  81.991, 5.791, 0,                       !- X,Y,Z Vertex 2 {m}
  53.95, 5.791, 0,                        !- X,Y,Z Vertex 3 {m}
  53.95, 12.497, 0,                       !- X,Y,Z Vertex 4 {m}
  78.943, 12.497, 0,                      !- X,Y,Z Vertex 5 {m}
  78.943, 22.86, 0;                       !- X,Y,Z Vertex 6 {m}

OS:Connection,
  {29ec9387-d343-4811-a4fb-6089b7064a7d}, !- Handle
  {22be5082-4684-4ab9-9ffa-9869881759ed}, !- Name
  ,                                       !- Source Object
  11,                                     !- Outlet Port
  ,                                       !- Target Object
  2;                                      !- Inlet Port

OS:Space,
  {9729522f-3e67-44fd-ba42-f2dfa1d6fd54}, !- Handle
  Lobby_Flr_1,                            !- Name
  {46c062fb-5867-400d-8fcc-dbdc4b4c854b}, !- Space Type Name
  ,                                       !- Default Construction Set Name
  ,                                       !- Default Schedule Set Name
  0,                                      !- Direction of Relative North {deg}
  0,                                      !- X Origin {m}
  0,                                      !- Y Origin {m}
  0,                                      !- Z Origin {m}
  {f0e9cfce-af22-4fe8-9588-665f4657efe7}, !- Building Story Name
  {afebb58a-1116-47f6-9c90-5f49d094ba1d}, !- Thermal Zone Name
  Yes;                                    !- Part of Total Floor Area

OS:Surface,
  {576e7e2f-4392-4bd1-8a79-b07f4eaa7ab9}, !- Handle
  Room_2_Flr_6_Wall_East,                 !- Name
  Wall,                                   !- Surface Type
  {6f8b8ce1-023d-438f-9475-e8a06232ff16}, !- Construction Name
  {0876245e-2114-48a5-bc47-3641589c67cf}, !- Space Name
  Adiabatic,                              !- Outside Boundary Condition
  ,                                       !- Outside Boundary Condition Object
  NoSun,                                  !- Sun Exposure
  NoWind,                                 !- Wind Exposure
  ,                                       !- View Factor to Ground
  ,                                       !- Number of Vertices
  4.572, 14.326, 19.2,                    !- X,Y,Z Vertex 1 {m}
  4.572, 14.326, 16.152,                  !- X,Y,Z Vertex 2 {m}
  4.572, 22.86, 16.152,                   !- X,Y,Z Vertex 3 {m}
  4.572, 22.86, 19.2;                     !- X,Y,Z Vertex 4 {m}

OS:Connection,
  {bc625ba4-78e0-4461-b352-499b6eea061b}, !- Handle
  {834ab286-5cd7-4934-9a93-5fb4a701cd5b}, !- Name
  ,                                       !- Source Object
  11,                                     !- Outlet Port
  ,                                       !- Target Object
  2;                                      !- Inlet Port

OS:Space,
  {0876245e-2114-48a5-bc47-3641589c67cf}, !- Handle
  Room_2_Flr_6,                           !- Name
  {ddbe7203-d5c5-4650-a745-9570cb58c820}, !- Space Type Name
  ,                                       !- Default Construction Set Name
  ,                                       !- Default Schedule Set Name
  0,                                      !- Direction of Relative North {deg}
  0,                                      !- X Origin {m}
  0,                                      !- Y Origin {m}
  0,                                      !- Z Origin {m}
  {37eb06c5-b84f-4e6d-89b3-53cf02f025b6}, !- Building Story Name
  {f628acfa-edf3-452f-9a4c-24ce5b53c969}, !- Thermal Zone Name
  Yes;                                    !- Part of Total Floor Area

OS:Surface,
  {031a902d-c6a0-40ca-9145-fe8ecd218fb2}, !- Handle
  Kitchen_Flr_6_Wall_2_West,              !- Name
  Wall,                                   !- Surface Type
  ,                                       !- Construction Name
  {6eb0e3ec-cf12-4336-a572-9ae482a6e322}, !- Space Name
  Surface,                                !- Outside Boundary Condition
  {1a4d7b44-1b26-4f53-b5cf-7c8f32a83943}, !- Outside Boundary Condition Object
  NoSun,                                  !- Sun Exposure
  NoWind,                                 !- Wind Exposure
  ,                                       !- View Factor to Ground
  ,                                       !- Number of Vertices
  79.553, 22.86, 19.2,                    !- X,Y,Z Vertex 1 {m}
  79.553, 22.86, 16.152,                  !- X,Y,Z Vertex 2 {m}
  79.553, 12.497, 16.152,                 !- X,Y,Z Vertex 3 {m}
  79.553, 12.497, 19.2;                   !- X,Y,Z Vertex 4 {m}

OS:Connection,
  {2bc90676-e313-46bc-9391-d4d4fe3b7f7c}, !- Handle
  {b96bfcb3-5ffc-4faa-b220-c89917a6071f}, !- Name
  ,                                       !- Source Object
  11,                                     !- Outlet Port
  ,                                       !- Target Object
  2;                                      !- Inlet Port

OS:Space,
  {6eb0e3ec-cf12-4336-a572-9ae482a6e322}, !- Handle
  Kitchen_Flr_6,                          !- Name
  {919f9bae-2b19-4d2f-8947-3d64d7b74dcb}, !- Space Type Name
  ,                                       !- Default Construction Set Name
  ,                                       !- Default Schedule Set Name
  0,                                      !- Direction of Relative North {deg}
  0,                                      !- X Origin {m}
  0,                                      !- Y Origin {m}
  0,                                      !- Z Origin {m}
  {37eb06c5-b84f-4e6d-89b3-53cf02f025b6}, !- Building Story Name
  {80aefcc1-be02-4e49-93dd-c1b2d17e3713}, !- Thermal Zone Name
  Yes;                                    !- Part of Total Floor Area

OS:SubSurface,
  {e41762ce-ac31-49c3-8b6b-bf509af3139f}, !- Handle
  Corridor_Flr_6_Wall_2_South_Window,     !- Name
  FixedWindow,                            !- Sub Surface Type
  {ea90c89e-c2f1-448e-828c-fc79a1324bda}, !- Construction Name
  {02fa6170-35a0-495c-84a6-948d593d7fe2}, !- Surface Name
  ,                                       !- Outside Boundary Condition Object
  ,                                       !- View Factor to Ground
  ,                                       !- Shading Control Name
  ,                                       !- Frame and Divider Name
  1,                                      !- Multiplier
  ,                                       !- Number of Vertices
  67.3918742176805, 5.791, 18.3994547262058, !- X,Y,Z Vertex 1 {m}
  67.3918742176805, 5.791, 17.3485452737942, !- X,Y,Z Vertex 2 {m}
  79.5221257823195, 5.791, 17.3485452737942, !- X,Y,Z Vertex 3 {m}
  79.5221257823195, 5.791, 18.3994547262058; !- X,Y,Z Vertex 4 {m}

OS:Surface,
  {02fa6170-35a0-495c-84a6-948d593d7fe2}, !- Handle
  Corridor_Flr_6_Wall_2_South,            !- Name
  Wall,                                   !- Surface Type
  ,                                       !- Construction Name
  {b7c24b2e-16ab-463a-ab8a-6b360ce66310}, !- Space Name
  Outdoors,                               !- Outside Boundary Condition
  ,                                       !- Outside Boundary Condition Object
  SunExposed,                             !- Sun Exposure
  WindExposed,                            !- Wind Exposure
  ,                                       !- View Factor to Ground
  ,                                       !- Number of Vertices
  64.922, 5.791, 19.2,                    !- X,Y,Z Vertex 1 {m}
  64.922, 5.791, 16.152,                  !- X,Y,Z Vertex 2 {m}
  81.991, 5.791, 16.152,                  !- X,Y,Z Vertex 3 {m}
  81.991, 5.791, 19.2;                    !- X,Y,Z Vertex 4 {m}

OS:Connection,
  {7cd9799d-5919-42c2-8b55-354e157acacb}, !- Handle
  {b9c1cf3e-f29c-401e-a1c5-5866169589e2}, !- Name
  ,                                       !- Source Object
  11,                                     !- Outlet Port
  ,                                       !- Target Object
  2;                                      !- Inlet Port

OS:Space,
  {b7c24b2e-16ab-463a-ab8a-6b360ce66310}, !- Handle
  Corridor_Flr_6,                         !- Name
  {dc531abb-588f-450f-b260-507a8afb12ce}, !- Space Type Name
  ,                                       !- Default Construction Set Name
  ,                                       !- Default Schedule Set Name
  0,                                      !- Direction of Relative North {deg}
  0,                                      !- X Origin {m}
  0,                                      !- Y Origin {m}
  0,                                      !- Z Origin {m}
  {37eb06c5-b84f-4e6d-89b3-53cf02f025b6}, !- Building Story Name
  {8f157378-eec2-46ab-8d3a-9b2fd6062174}, !- Thermal Zone Name
  Yes;                                    !- Part of Total Floor Area

OS:Connection,
  {7700f951-1613-4b47-b0a1-9393130fea01}, !- Handle
  {bc460e38-34ca-4051-b628-672128f634a1}, !- Name
  ,                                       !- Source Object
  11,                                     !- Outlet Port
  ,                                       !- Target Object
  2;                                      !- Inlet Port

OS:Space,
  {4cc47b56-fc37-418c-9ef3-f631924d73b1}, !- Handle
  Room_1_Flr_3,                           !- Name
  {36ca408f-fd41-451e-a7e0-ebe01ff3a1b5}, !- Space Type Name
  ,                                       !- Default Construction Set Name
  ,                                       !- Default Schedule Set Name
  0,                                      !- Direction of Relative North {deg}
  0,                                      !- X Origin {m}
  0,                                      !- Y Origin {m}
  0,                                      !- Z Origin {m}
  {4f20f531-d5ff-45bc-b4e0-45e468d1aabe}, !- Building Story Name
  {319aa594-4ad5-49df-81d4-7f0ef3e73f86}, !- Thermal Zone Name
  Yes;                                    !- Part of Total Floor Area

OS:Surface,
  {89885810-afaf-47dd-8058-c9096d3a1df4}, !- Handle
  Banquet_Flr_6_Ceiling,                  !- Name
  RoofCeiling,                            !- Surface Type
  ,                                       !- Construction Name
  {8809807f-1a5d-460c-8658-aed4576309dc}, !- Space Name
  Outdoors,                               !- Outside Boundary Condition
  ,                                       !- Outside Boundary Condition Object
  SunExposed,                             !- Sun Exposure
  WindExposed,                            !- Wind Exposure
  ,                                       !- View Factor to Ground
  ,                                       !- Number of Vertices
  42.367, 12.497, 19.2,                   !- X,Y,Z Vertex 1 {m}
  42.367, 22.86, 19.2,                    !- X,Y,Z Vertex 2 {m}
  10.363, 22.86, 19.2,                    !- X,Y,Z Vertex 3 {m}
  10.363, 12.497, 19.2;                   !- X,Y,Z Vertex 4 {m}

OS:Connection,
  {16133a9b-f57a-4278-aeb0-9ab4cabcea32}, !- Handle
  {862a6948-04e1-45f4-8d57-88d511f39097}, !- Name
  ,                                       !- Source Object
  11,                                     !- Outlet Port
  ,                                       !- Target Object
  2;                                      !- Inlet Port

OS:Space,
  {8809807f-1a5d-460c-8658-aed4576309dc}, !- Handle
  Banquet_Flr_6,                          !- Name
  {a9cb181a-0c8d-4987-a523-651c56146ba1}, !- Space Type Name
  ,                                       !- Default Construction Set Name
  ,                                       !- Default Schedule Set Name
  0,                                      !- Direction of Relative North {deg}
  0,                                      !- X Origin {m}
  0,                                      !- Y Origin {m}
  0,                                      !- Z Origin {m}
  {37eb06c5-b84f-4e6d-89b3-53cf02f025b6}, !- Building Story Name
  {7ebfdcf2-a661-40e8-944a-b516c919e2e7}, !- Thermal Zone Name
  Yes;                                    !- Part of Total Floor Area

OS:Surface,
  {bd6f17c1-d9ac-4443-a0e7-ba77fc0e338f}, !- Handle
  Room_2_Flr_3_Wall_North,                !- Name
  Wall,                                   !- Surface Type
  ,                                       !- Construction Name
  {74debf16-34cc-4713-a780-bf4e20bce7c1}, !- Space Name
  Outdoors,                               !- Outside Boundary Condition
  ,                                       !- Outside Boundary Condition Object
  SunExposed,                             !- Sun Exposure
  WindExposed,                            !- Wind Exposure
  ,                                       !- View Factor to Ground
  ,                                       !- Number of Vertices
  4.572, 22.86, 10.056,                   !- X,Y,Z Vertex 1 {m}
  4.572, 22.86, 7.008,                    !- X,Y,Z Vertex 2 {m}
  0, 22.86, 7.008,                        !- X,Y,Z Vertex 3 {m}
  0, 22.86, 10.056;                       !- X,Y,Z Vertex 4 {m}

OS:Connection,
  {1e990557-9825-406f-883b-eb083e607180}, !- Handle
  {9c2b1e9f-1e74-432f-bb17-d8265f2b4c6c}, !- Name
  ,                                       !- Source Object
  11,                                     !- Outlet Port
  ,                                       !- Target Object
  2;                                      !- Inlet Port

OS:Space,
  {74debf16-34cc-4713-a780-bf4e20bce7c1}, !- Handle
  Room_2_Flr_3,                           !- Name
  {36ca408f-fd41-451e-a7e0-ebe01ff3a1b5}, !- Space Type Name
  ,                                       !- Default Construction Set Name
  ,                                       !- Default Schedule Set Name
  0,                                      !- Direction of Relative North {deg}
  0,                                      !- X Origin {m}
  0,                                      !- Y Origin {m}
  0,                                      !- Z Origin {m}
  {4f20f531-d5ff-45bc-b4e0-45e468d1aabe}, !- Building Story Name
  {186842f9-d7e4-4fa6-b94c-a1b8619abd52}, !- Thermal Zone Name
  Yes;                                    !- Part of Total Floor Area

OS:SubSurface,
  {119c16c3-7f20-4e26-b678-31fa455fe8d0}, !- Handle
  Kitchen_Flr_6_Wall_North_Window,        !- Name
  FixedWindow,                            !- Sub Surface Type
  {ea90c89e-c2f1-448e-828c-fc79a1324bda}, !- Construction Name
  {fc76430c-91aa-4a98-a079-50d3f1df6ecc}, !- Surface Name
  ,                                       !- Outside Boundary Condition Object
  ,                                       !- View Factor to Ground
  ,                                       !- Shading Control Name
  ,                                       !- Frame and Divider Name
  1,                                      !- Multiplier
  ,                                       !- Number of Vertices
  85.9016026452854, 22.86, 18.3994547262058, !- X,Y,Z Vertex 1 {m}
  85.9016026452854, 22.86, 17.3485452737942, !- X,Y,Z Vertex 2 {m}
  82.6523973547146, 22.86, 17.3485452737942, !- X,Y,Z Vertex 3 {m}
  82.6523973547146, 22.86, 18.3994547262058; !- X,Y,Z Vertex 4 {m}

OS:Surface,
  {fc76430c-91aa-4a98-a079-50d3f1df6ecc}, !- Handle
  Kitchen_Flr_6_Wall_North,               !- Name
  Wall,                                   !- Surface Type
  ,                                       !- Construction Name
  {6eb0e3ec-cf12-4336-a572-9ae482a6e322}, !- Space Name
  Outdoors,                               !- Outside Boundary Condition
  ,                                       !- Outside Boundary Condition Object
  SunExposed,                             !- Sun Exposure
  WindExposed,                            !- Wind Exposure
  ,                                       !- View Factor to Ground
  ,                                       !- Number of Vertices
  86.563, 22.86, 19.2,                    !- X,Y,Z Vertex 1 {m}
  86.563, 22.86, 16.152,                  !- X,Y,Z Vertex 2 {m}
  79.553, 22.86, 16.152,                  !- X,Y,Z Vertex 3 {m}
  79.553, 22.86, 19.2;                    !- X,Y,Z Vertex 4 {m}

OS:Surface,
  {eed9e794-42dd-4187-905d-7469d2ebe6a3}, !- Handle
  Corridor_Flr_6_Wall_2_East,             !- Name
  Wall,                                   !- Surface Type
  ,                                       !- Construction Name
  {b7c24b2e-16ab-463a-ab8a-6b360ce66310}, !- Space Name
  Surface,                                !- Outside Boundary Condition
  {7f77f34a-183c-4842-8204-1ae3302f347c}, !- Outside Boundary Condition Object
  NoSun,                                  !- Sun Exposure
  NoWind,                                 !- Wind Exposure
  ,                                       !- View Factor to Ground
  ,                                       !- Number of Vertices
  47.549, 12.497, 19.2,                   !- X,Y,Z Vertex 1 {m}
  47.549, 12.497, 16.152,                 !- X,Y,Z Vertex 2 {m}
  47.549, 22.86, 16.152,                  !- X,Y,Z Vertex 3 {m}
  47.549, 22.86, 19.2;                    !- X,Y,Z Vertex 4 {m}

OS:Connection,
  {2cdc5106-ea33-4f08-a85c-cd95ba8a8078}, !- Handle
  {ca75261b-07ec-4f3a-9ee1-24661af0e6a6}, !- Name
  ,                                       !- Source Object
  11,                                     !- Outlet Port
  ,                                       !- Target Object
  2;                                      !- Inlet Port

OS:Space,
  {34cd0879-37f2-479e-bf95-00a865181f3a}, !- Handle
  Cafe_Flr_1,                             !- Name
  {56745b62-da99-4ccc-afcb-6be3c60274f5}, !- Space Type Name
  ,                                       !- Default Construction Set Name
  ,                                       !- Default Schedule Set Name
  0,                                      !- Direction of Relative North {deg}
  0,                                      !- X Origin {m}
  0,                                      !- Y Origin {m}
  0,                                      !- Z Origin {m}
  {f0e9cfce-af22-4fe8-9588-665f4657efe7}, !- Building Story Name
  {9da4ca23-bcc8-4531-922f-e6e7e90cba1a}, !- Thermal Zone Name
  Yes;                                    !- Part of Total Floor Area

OS:Surface,
  {1bac5371-274e-4893-9da0-b644c1907c0f}, !- Handle
  Cafe_Flr_1_Wall_1_North,                !- Name
  Wall,                                   !- Surface Type
  ,                                       !- Construction Name
  {34cd0879-37f2-479e-bf95-00a865181f3a}, !- Space Name
  Surface,                                !- Outside Boundary Condition
  {b88a94e0-28dd-4691-b321-bea2ef138731}, !- Outside Boundary Condition Object
  NoSun,                                  !- Sun Exposure
  NoWind,                                 !- Wind Exposure
  ,                                       !- View Factor to Ground
  ,                                       !- Number of Vertices
  81.991, 5.791, 3.9624,                  !- X,Y,Z Vertex 1 {m}
  81.991, 5.791, 0,                       !- X,Y,Z Vertex 2 {m}
  53.95, 5.791, 0,                        !- X,Y,Z Vertex 3 {m}
  53.95, 5.791, 3.9624;                   !- X,Y,Z Vertex 4 {m}

OS:SubSurface,
  {b0cf89ea-5054-4113-a461-7d968b586fa1}, !- Handle
  Corridor_Flr_6_Wall_2_North_Window,     !- Name
  FixedWindow,                            !- Sub Surface Type
  {ea90c89e-c2f1-448e-828c-fc79a1324bda}, !- Construction Name
  {2f39d77e-47f9-435b-99dc-b3e05e06bbfd}, !- Surface Name
  ,                                       !- Outside Boundary Condition Object
  ,                                       !- View Factor to Ground
  ,                                       !- Shading Control Name
  ,                                       !- Frame and Divider Name
  1,                                      !- Multiplier
  ,                                       !- Number of Vertices
  46.7988143441012, 22.86, 18.3994547262058, !- X,Y,Z Vertex 1 {m}
  46.7988143441012, 22.86, 17.3485452737942, !- X,Y,Z Vertex 2 {m}
  43.1171856558988, 22.86, 17.3485452737942, !- X,Y,Z Vertex 3 {m}
  43.1171856558988, 22.86, 18.3994547262058; !- X,Y,Z Vertex 4 {m}

OS:Surface,
  {2f39d77e-47f9-435b-99dc-b3e05e06bbfd}, !- Handle
  Corridor_Flr_6_Wall_2_North,            !- Name
  Wall,                                   !- Surface Type
  ,                                       !- Construction Name
  {b7c24b2e-16ab-463a-ab8a-6b360ce66310}, !- Space Name
  Outdoors,                               !- Outside Boundary Condition
  ,                                       !- Outside Boundary Condition Object
  SunExposed,                             !- Sun Exposure
  WindExposed,                            !- Wind Exposure
  ,                                       !- View Factor to Ground
  ,                                       !- Number of Vertices
  47.549, 22.86, 19.2,                    !- X,Y,Z Vertex 1 {m}
  47.549, 22.86, 16.152,                  !- X,Y,Z Vertex 2 {m}
  42.367, 22.86, 16.152,                  !- X,Y,Z Vertex 3 {m}
  42.367, 22.86, 19.2;                    !- X,Y,Z Vertex 4 {m}

OS:Surface,
  {4fbd5d4b-302e-435e-b4d5-b37c5e95654f}, !- Handle
  Mech_Flr_1_Wall_West,                   !- Name
  Wall,                                   !- Surface Type
  ,                                       !- Construction Name
  {8612e933-8099-41f8-8cf0-31c89c876aeb}, !- Space Name
  Surface,                                !- Outside Boundary Condition
  {aacae399-8cda-4a31-82d5-c3f6a85c1c53}, !- Outside Boundary Condition Object
  NoSun,                                  !- Sun Exposure
  NoWind,                                 !- Wind Exposure
  ,                                       !- View Factor to Ground
  ,                                       !- Number of Vertices
  53.95, 22.86, 3.9624,                   !- X,Y,Z Vertex 1 {m}